
     RDKit          3D

  5  4  0  0  0  0  0  0  0  0999 V2000
   -0.1391    0.0053   -0.0001 C   0  0  0  0  0  0  0  0  0  0  0  0
    1.6266   -0.0617    0.0017 Cl  0  0  0  0  0  0  0  0  0  0  0  0
   -0.5156   -0.5258   -0.8772 H   0  0  0  0  0  0  0  0  0  0  0  0
   -0.5153   -0.4675    0.9097 H   0  0  0  0  0  0  0  0  0  0  0  0
   -0.4567    1.0497   -0.0342 H   0  0  0  0  0  0  0  0  0  0  0  0
  1  2  1  0
  1  3  1  0
  1  4  1  0
  1  5  1  0
M  END
